      55
 E = -20.0
 Ni        12.4966191673       12.4150789581       12.5003751075
 Ni        12.4995314587       12.4992549475       10.1637170402
 Ni        12.5020562155       10.3688761345       11.3650263357
 Ni        12.4992804971       14.4994337168       13.5537501438
 Ni        12.5011303191       12.4310057007       14.8335694051
 Ni        14.4845574956       11.7663539012       11.4335277879
 Ni        10.5042785475       11.7661860650       11.4349579545
 Ni        14.4933579933       13.0286758676       13.5639308913
 Ni        10.5046280079       13.0325609655       13.5716367567
 Ni        13.7599079423       14.1057032404       11.4955570231
 Ni        11.2409950936       14.1035842018       11.4928577499
 Ni        13.7054300020       10.7085711212       13.5078787620
 Ni        11.2341498581       10.7182527987       13.4900434864
 Pt        12.5021606773       12.6100974592        7.5664274470
 Ni        12.5000783010       10.3543161514        8.9137895504
 Pt        14.6233372132       11.8177283862        8.8760990862
 Pt        10.3807301014       11.8107211736        8.8686255571
 Ni        13.7724436627       14.2453033558        9.0402755274
 Ni        11.2355849900       14.2463448712        9.0419058823
 Pt        12.5472757663        8.1417835035       10.1440680313
 Pt        16.6768497905       11.0343863849       10.2869426839
 Ni        14.5620167590        9.6268614204       10.2299568757
 Pt         8.3145179329       11.0588448156       10.2636125649
 Ni        10.4374730528        9.6282198689       10.2264726134
 Pt        15.0370184652       15.9773421609       10.3687718620
 Ni        15.8334188751       13.5573748778       10.3615824520
 Pt         9.9626525277       15.9783002598       10.3651890867
 Ni         9.1660282846       13.5584575658       10.3588353686
 Ni        12.5009482520       15.8899279816       10.4237064631
 Ni        13.7746711612        8.5601122555       12.3654620573
 Ni        15.7778990147        9.9752201042       12.4325102863
 Pt        11.1779159176        8.4161902322       12.3645371754
 Ni         9.1531509771        9.9770414935       12.4302368004
 Ni        13.7679350227       16.3103384311       12.5155515694
 Ni        15.8387112236       14.8348264053       12.5054387476
 Ni        11.2346201632       16.3072283062       12.5143112480
 Ni         9.1644540158       14.8268512322       12.5060293887
 Pt        16.7342756079       12.3847735522       12.5147583881
 Pt         8.2526835687       12.3905755347       12.5005671907
 Pt        14.6127102060       15.2931305144       14.7600080667
 Pt        10.3751275239       15.2998507645       14.7552162661
 Pt         9.8892948870        8.8365170586       14.6088148344
 Pt         8.3125891125       13.7116517900       14.7477938861
 Pt        12.4963119918       16.8232139148       14.6704324869
 Pt        16.6889217673       13.7439482711       14.7213979046
 Ni        15.8229249387       11.2964055485       14.6906132860
 Ni         9.1553664449       11.2970785844       14.6386411249
 Pt        15.0207388587        8.8484778517       14.5502486710
 Ni        12.5007249249        8.9000758673       14.5695385551
 Ni        12.4982829526       14.5632822274       16.0380218048
 Pt        11.1935278965       10.5900117656       16.0528719894
 Ni        10.4281593251       13.0484410279       16.0278096300
 Ni        14.5715008176       13.0347169541       16.0390598611
 Ni        13.7788892523       10.6392329102       15.9601935102
 Pt        12.4941780272       12.4332433634       17.3701956749
